/*--------------------------------*- C++ -*----------------------------------*\
| =========                 |                                                 |
| \\      /  F ield         | OpenFOAM: The Open Source CFD Toolbox           |
|  \\    /   O peration     | Version:  v2306                                 |
|   \\  /    A nd           | Website:  www.openfoam.com                      |
|    \\/     M anipulation  |                                                 |
\*---------------------------------------------------------------------------*/
FoamFile
{
    version     2.0;
    format      ascii;
    class       dictionary;
    object      blockMeshDict;
}
// * * * * * * * * * * * * * * * * * * * * * * * * * * * * * * * * * * * * * //

scale   1;

vertices
(
    (0 -1.25 0)
    (5 -1.25 0)
    (5  1.25 0)
    (0  1.25 0)
    (0 -1.25 1.5)
    (5 -1.25 1.5)
    (5  1.25 1.5)
    (0  1.25 1.5)
);

blocks
(
    hex (0 1 2 3 4 5 6 7) (90 45 27) simpleGrading (1 1 1)
);

edges
(
);

boundary
(
    frontAndBack
    {
        type symmetryPlane;
        faces
        (3 7 6 2)
        (1 5 4 0)

    }
    inlet
    {
        type patch;
        faces
        (
            (0 4 7 3)
        );
    }
    outlet
    {
        type patch;
        faces
        (
            (2 6 5 1)
        );
    }
    lowerWall
    {
        type movingWallVelocity;
        faces
        (
            (0 3 2 1)
        );
        value uniform (20 0 0);
    }
    upperWall
    {
        type symmetryPlane;;
        faces
        (
            (4 5 6 7)
        );
    }
);


// ************************************************************************* //
